This is my demo project.
New address added.
new line.
4th line
